*----------------------------------------------------------------------
* SPICE Model generated by Murata Manufacturing Co., Ltd.
* Copyright(C) Murata Manufacturing Co., Ltd.
* Description :0603M(0201)/X7R/2200pF/10V
* Murata P/N :GCM033R71A222KA03
* Property : C = 2200[pF]
* Data Generated on Aug 1, 2022
*----------------------------------------------------------------------
* Applicable Conditions:
*   Frequency Range = 100Hz-6GHz
*   Temperature = 25 degC
*   DC Bias Voltage = 0V
*   Small Signal Operation
*----------------------------------------------------------------------
.SUBCKT GCM033R71A222KA03_DC0V_25degC port1 port2
C1 port1 11 2.11e-9
L2 11 12 2.01e-10
R3 12 13 1.60e-1
C4 13 14 2.22e-7
R4 13 14 9.90e+3
C5 14 15 2.76e-7
R5 14 15 1.06e+3
C6 15 16 2.32e-7
R6 15 16 122
C7 16 17 1.93e-7
R7 16 17 12.0
C8 17 18 1.53e-7
R8 17 18 1.73
C9 18 19 9.21e-8
R9 18 19 3.14e-1
C10 19 20 1.14e-7
R10 19 20 2.79e-2
L11 20 21 3.77e-11
R11 20 21 7.90e-1
C12 21 22 1.29e-9
L12 21 22 1.77e-11
R12 21 22 1.02e-1
C13 22 port2 1.35e-11
L13 22 port2 2.59e-11
R13 22 port2 3.55
R100 port1 11 1.00e+10
.ENDS GCM033R71A222KA03_DC0V_25degC
