*----------------------------------------------------------------------
* SPICE Model generated by Murata Manufacturing Co., Ltd.
* Copyright(C) Murata Manufacturing Co., Ltd.
* Description :1608M(0603)/X5R/2.2uF/50V
* Murata P/N :GRT188R61H225KE13
* Property : C = 2.2[uF]
* Data Generated on Oct 1, 2019
*----------------------------------------------------------------------
* Applicable Conditions:
*   Frequency Range = 100Hz-6GHz
*   Temperature = 25 degC
*   DC Bias Voltage = 0V
*   Small Signal Operation
*----------------------------------------------------------------------
.SUBCKT GRT188R61H225KE13_DC0V_25degC port1 port2
C1 port1 11 1.79e-6
L2 11 12 2.15e-10
R3 12 13 4.61e-3
C4 13 14 6.02e-5
R4 13 14 72.2
C5 14 15 1.00e-4
R5 14 15 4.17
C6 15 16 8.72e-5
R6 15 16 5.39e-1
C7 16 17 8.23e-5
R7 16 17 7.52e-2
C8 17 18 6.88e-5
R8 17 18 1.27e-2
C9 18 19 8.20e-5
R9 18 19 1.89e-3
L10 19 20 2.42e-11
R10 19 20 6.68e-2
L11 20 21 1.56e-10
R11 20 21 3.08e-2
C12 21 22 6.97e-6
L12 21 22 3.84e-11
R12 21 22 7.06e-3
C13 22 23 1.84e-6
L13 22 23 6.98e-11
R13 22 23 1.19e-2
C14 23 port2 5.15e-12
L14 23 port2 8.20e-11
R14 23 port2 17.1
R100 port1 11 2.27e+7
.ENDS GRT188R61H225KE13_DC0V_25degC
