*----------------------------------------------------------------------
* SPICE Model generated by Murata Manufacturing Co., Ltd.
* Copyright(C) Murata Manufacturing Co., Ltd.
* Description :1005M(0402)/X7R/0.47uF/10V
* Murata P/N :GRT155R71A474KE01
* Property : C = 0.47[uF]
* Data Generated on Aug 1, 2022
*----------------------------------------------------------------------
* Applicable Conditions:
*   Frequency Range = 100Hz-6GHz
*   Temperature = 25 degC
*   DC Bias Voltage = 0V
*   Small Signal Operation
*----------------------------------------------------------------------
.SUBCKT GRT155R71A474KE01_DC0V_25degC port1 port2
C1 port1 11 2.78e-7
L2 11 12 1.81e-10
R3 12 13 1.40e-2
C4 13 14 8.14e-6
R4 13 14 489
C5 14 15 1.13e-5
R5 14 15 51.2
C6 15 16 1.05e-5
R6 15 16 6.90
C7 16 17 1.13e-5
R7 16 17 1.26
C8 17 18 8.02e-6
R8 17 18 3.05e-1
C9 18 19 6.81e-6
R9 18 19 4.77e-2
C10 19 20 4.48e-6
R10 19 20 1.51e-2
L11 20 21 2.56e-11
R11 20 21 1.41e-1
L12 21 22 1.11e-10
R12 21 22 5.61e-2
C13 22 23 1.59e-6
L13 22 23 1.64e-11
R13 22 23 6.04e-3
C14 23 24 5.16e-7
L14 23 24 2.30e-11
R14 23 24 1.05e-2
C15 24 port2 3.03e-12
L15 24 port2 5.92e-11
R15 24 port2 8.81
R100 port1 11 1.06e+8
.ENDS GRT155R71A474KE01_DC0V_25degC
